.SUBCKT inverter Vin vpos vneg Vout
*.PININFO  Vout:O vneg:B vpos:B Vin:B
*
*.SCALE METER
*.GLOBAL VDD VSS
*
M1  Vout Vin vneg vneg nch  w=1.8u l=0.6u m=1
M0  Vout Vin vpos vpos pch  w=1.8u l=0.6u m=1
.ENDS
