.SUBCKT and2_2x B Y A
*.PININFO  Y:O B:B A:I
*
*.SCALE METER
*.GLOBAL vss vdd
*
M3  n0 B vdd vdd C5NPMOS  w=3.6u l=0.6u m=1
M4  Y n0 vss vss C5NNMOS  w=1.8u l=0.6u m=2
M1  n0 A n2 vss C5NNMOS  w=3.6u l=0.6u m=1
M2  n2 B vss vss C5NNMOS  w=3.6u l=0.6u m=1
M0  n0 A vdd vdd C5NPMOS  w=3.6u l=0.6u m=1
M5  Y n0 vdd vdd C5NPMOS  w=3.6u l=0.6u m=2
.ENDS
