.SUBCKT and2_1x B Y A
*.PININFO  Y:O B:B A:I
*
*.SCALE METER
.GLOBAL vss
.GLOBAL vdd

*
M3  n3 B vdd vdd C5NPMOS  w=3.6u l=0.6u m=1
M4  Y n3 vss vss C5NNMOS  w=1.8u l=0.6u m=1
M1  n3 A n0 vss C5NNMOS  w=3.6u l=0.6u m=1
M2  n0 B vss vss C5NNMOS  w=3.6u l=0.6u m=1
M0  n3 A vdd vdd C5NPMOS  w=3.6u l=0.6u m=1
M5  Y n3 vdd vdd C5NPMOS  w=3.6u l=0.6u m=1
.ENDS
