.SUBCKT and3_4x B Y A
*.PININFO  Y:B B:I A:I
*
*.SCALE METER
*.GLOBAL vss vdd
*
M3  n3 C vss vss C5NNMOS  w=5.4u l=0.6u m=1
M7  Y n0 vss vss C5NNMOS  w=1.8u l=0.6u m=4
M4  n0 B vdd vdd C5NPMOS  w=3.6u l=0.6u m=1
M6  Y n0 vdd vdd C5NPMOS  w=3.6u l=0.6u m=4
M1  n5 B n3 vss C5NNMOS  w=5.4u l=0.6u m=1
M2  n0 A n5 vss C5NNMOS  w=5.4u l=0.6u m=1
M0  n0 A vdd vdd C5NPMOS  w=3.6u l=0.6u m=1
M5  n0 C vdd vdd C5NPMOS  w=3.6u l=0.6u m=1
.ENDS
