.SUBCKT inverter Vin Vout
*.PININFO  Vout:B Vin:I
*
*.SCALE METER
*.GLOBAL vneg vpos
*
M1  Vout Vin vneg vneg C5NNMOS  w=1.8u l=0.6u m=1
M0  Vout Vin vpos vpos C5NPMOS  w=1.8u l=0.6u m=1
.ENDS
