.SUBCKT nand3_4x B Y C A
*.PININFO  Y:O B:B A:I C:I
*
*.SCALE METER
*.GLOBAL vss vdd
*
M3  n2 C vss vss C5NNMOS  w=5.4u l=0.6u m=4
M4  Y B vdd vdd C5NPMOS  w=3.6u l=0.6u m=4
M1  n0 B n2 vss C5NNMOS  w=5.4u l=0.6u m=4
M2  Y A n0 vss C5NNMOS  w=5.4u l=0.6u m=4
M0  Y A vdd vdd C5NPMOS  w=3.6u l=0.6u m=4
M5  Y C vdd vdd C5NPMOS  w=3.6u l=0.6u m=4
.ENDS
