.SUBCKT nand2_1x B Y A
*.PININFO  Y:B B:I A:I
*
*.SCALE METER
.GLOBAL vss
.GLOBAL vdd

*
M3  Y B vdd vdd C5NPMOS  w=3.6u l=0.6u m=1
M2  n0 B vss vss C5NNMOS  w=3.6u l=0.6u m=1
M1  Y A n0 vss C5NNMOS  w=3.6u l=0.6u m=1
M0  Y A vdd vdd C5NPMOS  w=3.6u l=0.6u m=1
.ENDS
