.SUBCKT nand2_2x B Y A
*.PININFO  Y:O B:B A:I
*
*.SCALE METER
*.GLOBAL vss vdd
*
M3  Y B vdd vdd C5NPMOS  w=3.6u l=0.6u m=2
M2  n0 B vss vss C5NNMOS  w=3.6u l=0.6u m=2
M1  Y A n0 vss C5NNMOS  w=3.6u l=0.6u m=2
M0  Y A vdd vdd C5NPMOS  w=3.6u l=0.6u m=2
.ENDS
