.SUBCKT nor2_2x B A Y
*.PININFO  Y:B B:I A:I
*
*.SCALE METER
*.GLOBAL vss vdd
*
M3  Y B n1 vdd C5NPMOS  w=7.2u l=0.6u m=2
M2  Y B vss vss C5NNMOS  w=1.8u l=0.6u m=2
M1  Y A vss vss C5NNMOS  w=1.8u l=0.6u m=2
M0  n1 A vdd vdd C5NPMOS  w=7.2u l=0.6u m=2
.ENDS
