.SUBCKT nor3_1x B Y A
*.PININFO  Y:O B:B A:I
*
*.SCALE METER
.GLOBAL vss
.GLOBAL vdd

*
M3  n2 B n3 vdd C5NPMOS  w=10.8u l=0.6u m=1
M4  Y C vss vss C5NNMOS  w=1.8u l=0.6u m=1
M1  Y A vss vss C5NNMOS  w=1.8u l=0.6u m=1
M2  Y B vss vss C5NNMOS  w=1.8u l=0.6u m=1
M0  n3 A vdd vdd C5NPMOS  w=10.8u l=0.6u m=1
M5  Y C n2 vdd C5NPMOS  w=10.8u l=0.6u m=1
.ENDS
