.SUBCKT or2_2x B A
*.PININFO  B:I A:I
*
*.SCALE METER
*.GLOBAL vss vdd
*
M3  n3 B n2 vdd C5NPMOS  w=7.2u l=0.6u m=1
M4  Z n3 vdd vdd C5NPMOS  w=3.6u l=0.6u m=2
M1  n3 A vss vss C5NNMOS  w=1.8u l=0.6u m=1
M2  n3 B vss vss C5NNMOS  w=1.8u l=0.6u m=1
M0  n2 A vdd vdd C5NPMOS  w=7.2u l=0.6u m=1
M5  Z n3 vss vss C5NNMOS  w=1.8u l=0.6u m=2
.ENDS
