Version 4
SHEET 1 880 680
WIRE 192 112 192 96
WIRE 128 176 96 176
WIRE 304 176 272 176
WIRE 192 256 192 240
WIRE -224 272 -224 240
WIRE -128 272 -128 240
WIRE -16 272 -16 240
WIRE -224 384 -224 352
WIRE -128 384 -128 352
WIRE -16 384 -16 352
FLAG 192 96 POS
FLAG 192 256 NEG
FLAG 96 176 IN
FLAG 304 176 OUT
FLAG -128 384 0
FLAG -224 384 0
FLAG -16 384 0
FLAG -128 240 NEG
FLAG -224 240 POS
FLAG -16 240 IN
SYMBOL buffer 192 176 R0
SYMATTR InstName X1
SYMBOL voltage -128 256 R0
SYMATTR InstName V1
SYMATTR Value 0
SYMBOL voltage -224 256 R0
WINDOW 123 0 0 Left 0
WINDOW 39 0 0 Left 0
SYMATTR InstName V2
SYMATTR Value 5
SYMBOL voltage -16 256 R0
WINDOW 123 0 0 Left 0
WINDOW 39 0 0 Left 0
SYMATTR InstName V3
SYMATTR Value PULSE(0 5 0 .1n .1n 0.4n 1n)
TEXT -248 24 Left 2 !.tran 5n
TEXT -248 56 Left 2 !.include "C5N_models_Glade.txt"
