.SUBCKT buffer IN OUT POS NEG
*.PININFO  POS:B OUT:B IN:B NEG:B
*
*.SCALE METER

*
M2/XX1  N001 IN NEG NEG C5NNMOS  l=0.6u w=3.6u
M1/XX1  N001 IN POS POS C5NPMOS  l=0.6u w=1.8u
M2/XX2  OUT N001 NEG NEG C5NNMOS  l=0.6u w=3.6u
M1/XX2  OUT N001 POS POS C5NPMOS  l=0.6u w=1.8u
.ENDS
