Version 4
SHEET 1 880 680
SYMBOL Test_std_cell 224 176 R0
SYMATTR InstName X1
